Version 4
SHEET 1 2468 768
WIRE -48 -416 -240 -416
WIRE 96 -416 -48 -416
WIRE 304 -416 176 -416
WIRE 368 -416 304 -416
WIRE 512 -416 448 -416
WIRE 560 -416 512 -416
WIRE 672 -416 640 -416
WIRE 736 -416 672 -416
WIRE 848 -416 816 -416
WIRE 880 -416 848 -416
WIRE 992 -416 960 -416
WIRE 1040 -416 992 -416
WIRE 1152 -416 1120 -416
WIRE 1232 -416 1152 -416
WIRE 1376 -416 1312 -416
WIRE -48 -272 -48 -416
WIRE 304 -272 304 -416
WIRE 512 -272 512 -416
WIRE 672 -272 672 -416
WIRE 848 -272 848 -416
WIRE 992 -272 992 -416
WIRE 1152 -272 1152 -416
WIRE 1376 -272 1376 -416
WIRE -48 -80 -48 -192
WIRE 176 -80 -48 -80
WIRE 304 -80 304 -192
WIRE 304 -80 256 -80
WIRE 720 -80 304 -80
WIRE 1152 -80 1152 -192
WIRE 1152 -80 800 -80
WIRE 1264 -80 1152 -80
WIRE 1376 -80 1376 -192
WIRE 1376 -80 1344 -80
WIRE -48 48 -48 -80
WIRE 192 48 -48 48
WIRE 512 48 512 -192
WIRE 512 48 272 48
WIRE 640 48 512 48
WIRE 848 48 848 -192
WIRE 848 48 720 48
WIRE 1200 48 848 48
WIRE 1376 48 1376 -80
WIRE 1376 48 1280 48
WIRE -48 160 -48 48
WIRE 288 160 -48 160
WIRE 672 160 672 -192
WIRE 672 160 368 160
WIRE 816 160 672 160
WIRE 992 160 992 -192
WIRE 992 160 896 160
WIRE 1168 160 992 160
WIRE 1376 160 1376 48
WIRE 1376 160 1248 160
WIRE -48 240 -48 160
WIRE -240 368 -240 -416
WIRE -48 368 -48 320
FLAG -48 368 0
FLAG -240 368 0
SYMBOL res 272 -96 R90
WINDOW 0 0 56 VBottom 2
WINDOW 3 32 56 VTop 2
SYMATTR InstName R1
SYMATTR Value {{rho_cu}*{Nb_rails}*{L_rail}/s_feeder}
SYMATTR SpiceLine tol=0 pwr=0
SYMBOL voltage -48 224 R0
WINDOW 123 0 0 Left 2
WINDOW 39 24 124 Left 2
SYMATTR InstName V1
SYMATTR Value 750
SYMBOL res 288 32 R90
WINDOW 0 0 56 VBottom 2
WINDOW 3 32 56 VTop 2
SYMATTR InstName R2
SYMATTR Value {{rho_cu}*2*{Nb_rails}*{L_rail}/s_feeder}
SYMBOL res 384 144 R90
WINDOW 0 0 56 VBottom 2
WINDOW 3 32 56 VTop 2
SYMATTR InstName R3
SYMATTR Value {{rho_cu}*3*{Nb_rails}*{L_rail}/s_feeder}
SYMBOL res 736 32 R90
WINDOW 0 0 56 VBottom 2
WINDOW 3 32 56 VTop 2
SYMATTR InstName R4
SYMATTR Value {{rho_cu}*2*{Nb_rails}*{L_rail}/s_feeder}
SYMBOL res 912 144 R90
WINDOW 0 0 56 VBottom 2
WINDOW 3 32 56 VTop 2
SYMATTR InstName R5
SYMATTR Value {{rho_cu}*2*{Nb_rails}*{L_rail}/s_feeder}
SYMBOL res 816 -96 R90
WINDOW 0 0 56 VBottom 2
WINDOW 3 32 56 VTop 2
SYMATTR InstName R6
SYMATTR Value {{rho_cu}*5*{Nb_rails}*{L_rail}/s_feeder}
SYMBOL res -64 -288 R0
SYMATTR InstName Rtruck1
SYMATTR Value {Rtruck1}
SYMBOL res 288 -288 R0
SYMATTR InstName Rtruck2
SYMATTR Value {Rtruck2}
SYMBOL res 496 -288 R0
SYMATTR InstName Rtruck3
SYMATTR Value {Rtruck3}
SYMBOL res 656 -288 R0
SYMATTR InstName Rtruck4
SYMATTR Value {Rtruck4}
SYMBOL res 832 -288 R0
SYMATTR InstName Rtruck5
SYMATTR Value {Rtruck5}
SYMBOL res 976 -288 R0
SYMATTR InstName Rtruck6
SYMATTR Value {Rtruck6}
SYMBOL res 1360 -288 R0
SYMATTR InstName Rtruck8
SYMATTR Value {Rtruck8}
SYMBOL res 1296 32 R90
WINDOW 0 0 56 VBottom 2
WINDOW 3 32 56 VTop 2
SYMATTR InstName R14
SYMATTR Value {{rho_cu}*3*{Nb_rails}*{L_rail}/s_feeder}
SYMBOL res 1136 -288 R0
SYMATTR InstName Rtruck7
SYMATTR Value {Rtruck7}
SYMBOL res 1360 -96 R90
WINDOW 0 0 56 VBottom 2
WINDOW 3 32 56 VTop 2
SYMATTR InstName R16
SYMATTR Value {{rho_cu}*1*{Nb_rails}*{L_rail}/s_feeder}
SYMBOL res 1328 -432 R90
WINDOW 0 0 56 VBottom 2
WINDOW 3 32 56 VTop 2
SYMATTR InstName R17
SYMATTR Value {{rho_cu}*1*{Nb_rails}*{L_rail}/s_retour}
SYMBOL res 1136 -432 R90
WINDOW 0 0 56 VBottom 2
WINDOW 3 -54 58 VTop 2
SYMATTR InstName R18
SYMATTR Value {{rho_cu}*1*{Nb_rails}*{L_rail}/s_retour}
SYMBOL res 976 -432 R90
WINDOW 0 60 57 VBottom 2
WINDOW 3 60 62 VTop 2
SYMATTR InstName R19
SYMATTR Value {{rho_cu}*1*{Nb_rails}*{L_rail}/s_retour}
SYMBOL res 832 -432 R90
WINDOW 0 0 56 VBottom 2
WINDOW 3 -81 64 VTop 2
SYMATTR InstName R20
SYMATTR Value {{rho_cu}*1*{Nb_rails}*{L_rail}/s_retour}
SYMBOL res 656 -432 R90
WINDOW 0 0 56 VBottom 2
WINDOW 3 32 56 VTop 2
SYMATTR InstName R21
SYMATTR Value {{rho_cu}*1*{Nb_rails}*{L_rail}/s_retour}
SYMBOL res 464 -432 R90
WINDOW 0 0 56 VBottom 2
WINDOW 3 -54 58 VTop 2
SYMATTR InstName R22
SYMATTR Value {{rho_cu}*1*{Nb_rails}*{L_rail}/s_retour}
SYMBOL res 192 -432 R90
WINDOW 0 60 57 VBottom 2
WINDOW 3 60 62 VTop 2
SYMATTR InstName R23
SYMATTR Value {{rho_cu}*1*{Nb_rails}*{L_rail}/s_retour}
SYMBOL res 1264 144 R90
WINDOW 0 0 56 VBottom 2
WINDOW 3 66 56 VTop 2
SYMATTR InstName R24
SYMATTR Value {{rho_cu}*2*{Nb_rails}*{L_rail}/s_feeder}
TEXT 304 -144 Left 2 ;CA2
TEXT -48 -152 Left 2 ;CA1
TEXT 512 -144 Left 2 ;CA3
TEXT 672 -144 Left 2 ;CA4
TEXT 848 -144 Left 2 ;CA5
TEXT 992 -144 Left 2 ;CA6
TEXT 1376 -144 Left 2 ;CA8
TEXT -48 -280 Left 2 ;Truck_load1
TEXT 312 -280 Left 2 ;Truck_load2
TEXT 512 -280 Left 2 ;Truck_load3
TEXT 672 -280 Left 2 ;Truck_load4
TEXT 848 -280 Left 2 ;Truck_load5
TEXT 992 -280 Left 2 ;Truck_load6
TEXT 1376 -280 Left 2 ;Truck_load8
TEXT 1304 184 Left 2 ;Equipotential2
TEXT -120 184 Left 2 ;Equipotential1
TEXT 24 144 Left 2 ;Feeder1
TEXT 24 32 Left 2 ;Feeder2
TEXT 24 -96 Left 2 ;Feeder3
TEXT 704 392 Left 2 !.params L_rail=20 Nb_rails=3 P_truck=120000 rho_cu=0.000000017 s_feeder=0.00007 s_retour=0.00021
TEXT -264 416 Left 2 !.tran 1
TEXT 1152 -280 Left 2 ;Truck_load7
TEXT 1152 -144 Left 2 ;CA7
TEXT 1456 -144 Left 2 ;(La résistance des câbles entre rail et feeder est négligée)
TEXT 1416 -416 Left 2 ;Câble retour traction
TEXT 1504 -320 Left 2 ;(La résistance des câbles entre rail et câble retour est négligée)
TEXT 1648 -416 Left 2 ;(en cuivre)
TEXT 704 448 Left 2 !.params R_vide=9999999999 R_truck=750*750/P_truck
TEXT 1304 448 Left 2 ;(grosse approx : U=750V et moteur = résistance pure)
TEXT 1744 88 Left 2 !.params Rtruck1=R_truck\n.params Rtruck2=R_truck\n.params Rtruck3=R_vide \n.params Rtruck4=R_truck\n.params Rtruck5=R_vide\n.params Rtruck6=R_vide\n.params Rtruck7=R_truck\n.params Rtruck8=R_truck
